* Deltares, D-Flow FM Version 1.1.198.48807, Nov 30 2016, 20:10:08
* File creation date: 13:14:44, 22-08-2017                                      
** DEBUG  :            0  0.1000020     NOD(KMAX)
** DEBUG  :            6  0.7000140     XK (KMAX), YK (KMAX), ZK (KMAX), KC (KMAX), NMK (KMAX), RNOD(KMAX)
** DEBUG  :            6  9.9999998E-03 XS(NSMAX),YS(NSMAX),ZS(NSMAX),IPSAM(NSMAX)
** DEBUG  :            6  5.0000001E-02 xlan(maxlan)
** DEBUG  :            7  5.0000001E-02 ylan(maxlan)
** DEBUG  :            7  5.0000001E-02 zlan(maxlan)
** DEBUG  :            7  2.5000000E-02 nclan(maxlan)
